<?xml version="1.0" encoding="UTF-8"?>

<!-- generated on 2025-10-17 17:23:44 by Eclipse SUMO netconvert Version 1.24.0
<netconvertConfiguration xmlns:xsi="http://www.w3.org/2001/XMLSchema-instance" xsi:noNamespaceSchemaLocation="http://sumo.dlr.de/xsd/netconvertConfiguration.xsd">

    <input>
        <sumo-net-file value="C:\Users\ACER\Documents\CS\Multimodal Interaction\Webots\worlds\village_realistic_net\sumo.net.xml"/>
    </input>

    <output>
        <plain-output-prefix value="plain"/>
    </output>

    <processing>
        <geometry.min-radius.fix.railways value="false"/>
        <geometry.avoid-overlap value="false"/>
        <geometry.max-grade.fix value="false"/>
        <offset.disable-normalization value="true"/>
        <lefthand value="0"/>
    </processing>

    <junctions>
        <no-turnarounds value="true"/>
        <junctions.corner-detail value="0"/>
        <junctions.limit-turn-speed value="-1.00"/>
        <rectangular-lane-cut value="0"/>
    </junctions>

    <pedestrian>
        <walkingareas value="0"/>
    </pedestrian>

</netconvertConfiguration>
-->

<edges version="1.20" xmlns:xsi="http://www.w3.org/2001/XMLSchema-instance" xsi:noNamespaceSchemaLocation="http://sumo.dlr.de/xsd/edges_file.xsd">
    <edge id="-0" from="Custom13" to="39" priority="-1" numLanes="1" speed="13.90" shape="369.24,250.44 366.49,251.92 363.75,253.35 361.04,254.69 358.37,255.90 355.74,256.92 353.17,257.72 350.67,258.25 348.26,258.46 345.94,258.32 343.72,257.85 341.61,257.10 339.61,256.09 337.72,254.87 335.96,253.46 334.32,251.91 332.81,250.25 331.44,248.52 330.20,246.74 329.06,244.93 328.04,243.12 327.10,241.34 326.25,239.59 325.47,237.91 324.74,236.32 324.07,234.84 323.45,233.46 322.85,232.16 322.29,230.93 321.76,229.76 321.24,228.63 320.74,227.53 320.24,226.44" width="3.50"/>
    <edge id="-1" from="39" to="40" priority="-1" numLanes="1" speed="13.90" shape="320.25,226.44 319.85,225.63 319.46,224.81 319.06,224.01 318.66,223.20 318.26,222.40 317.86,221.60 317.45,220.81 317.04,220.03 316.63,219.26 316.22,218.49 315.81,217.73 315.39,216.98 314.98,216.23 314.56,215.48 314.14,214.74 313.72,214.00" width="3.50"/>
    <edge id="-10" from="30" to="32" priority="-1" numLanes="1" speed="13.90" shape="265.66,182.92 266.10,181.20 266.54,179.47 267.03,177.74 267.56,175.98 268.16,174.19 268.85,172.37 269.65,170.51 270.56,168.61 271.60,166.65 272.78,164.66 274.06,162.67 275.46,160.70 276.94,158.76 278.50,156.89 280.14,155.11 281.83,153.44 283.58,151.90 285.36,150.46 287.17,149.10 289.00,147.79 290.84,146.49 292.67,145.17 294.50,143.80 296.31,142.36 298.09,140.82 299.83,139.19 301.51,137.46 303.11,135.66 304.62,133.78 306.02,131.84 307.30,129.86 308.44,127.83 309.43,125.76 310.29,123.67 311.04,121.55 311.68,119.41 312.25,117.26 312.76,115.09 313.24,112.91 313.69,110.73" width="3.50"/>
    <edge id="-11" from="32" to="33" priority="-1" numLanes="1" speed="13.90" shape="313.70,110.73 312.48,104.69 311.26,98.66 310.04,92.63 308.82,86.59 307.60,80.56 306.38,74.52 305.15,68.49 303.93,62.46" width="3.50"/>
    <edge id="-13" from="Custom21" to="28" priority="-1" numLanes="1" speed="13.90" shape="74.17,67.63 75.55,68.32 76.94,69.00 78.37,69.67 79.85,70.33 81.40,70.98 83.04,71.61 84.78,72.22 86.64,72.80 88.64,73.36 90.75,73.88 92.94,74.38 95.20,74.86 97.50,75.31 99.80,75.73 102.10,76.14 104.35,76.52 106.54,76.89 108.66,77.24 110.71,77.61 112.70,77.99 114.62,78.39 116.46,78.84 118.24,79.35 119.94,79.92 121.57,80.56 123.13,81.27 124.63,82.03 126.07,82.83 127.47,83.66 128.81,84.49 130.12,85.32 131.39,86.14 132.63,86.93 133.85,87.69 135.04,88.42 136.20,89.13 137.35,89.81 138.47,90.46 139.57,91.09 140.65,91.70 141.72,92.28 142.77,92.84 143.80,93.39 144.83,93.92 145.85,94.44 146.86,94.95 147.87,95.45 148.88,95.95" width="3.50"/>
    <edge id="-14" from="Custom22" to="27" priority="-1" numLanes="2" speed="13.90" shape="74.65,160.65 79.48,161.99 84.25,163.32 88.91,164.61 93.39,165.84 97.63,166.99 101.58,168.04 105.17,168.97 108.35,169.77 111.07,170.42 113.39,170.93 115.36,171.32 117.03,171.61 118.47,171.82 119.73,171.97 120.87,172.09 121.93,172.17" width="3.50"/>
    <edge id="-16" from="28" to="Custom23" priority="-1" numLanes="1" speed="13.90" shape="156.81,98.08 157.51,98.29 158.23,98.51 158.95,98.72 159.69,98.94 160.46,99.17 161.26,99.40 162.10,99.64 162.99,99.89 163.93,100.15 164.91,100.42 165.95,100.69 167.03,100.97 168.15,101.25 169.32,101.52 170.54,101.79 171.79,102.05 173.09,102.30 174.42,102.52 175.79,102.69 177.21,102.80 178.67,102.82 180.16,102.75 181.70,102.56 183.28,102.23 184.91,101.75 186.56,101.15 188.24,100.43 189.93,99.62 191.63,98.74 193.32,97.82 195.00,96.87 196.66,95.92 198.28,94.98 199.89,94.04 201.49,93.08 203.10,92.11 204.74,91.09 206.42,90.02 208.16,88.88 209.97,87.66 211.85,86.34 213.81,84.95 215.84,83.48 217.91,81.95 220.03,80.37 222.18,78.76 224.36,77.12 226.54,75.47" width="3.50"/>
    <edge id="-17" from="27" to="37" priority="-1" numLanes="1" speed="13.90" shape="129.70,174.57 130.42,174.92 131.14,175.26 131.87,175.61 132.62,175.95 133.40,176.30 134.20,176.64 135.04,176.99 135.92,177.34 136.85,177.68 137.84,178.03 138.90,178.40 140.04,178.77 141.28,179.16 142.62,179.58 144.07,180.02 145.66,180.50 147.38,181.01 149.21,181.54 151.14,182.09 153.14,182.63 155.20,183.17 157.28,183.68 159.36,184.16 161.43,184.60 163.46,184.97 165.45,185.30 167.40,185.57 169.31,185.80 171.18,185.99 173.00,186.13 174.78,186.25 176.51,186.33 178.20,186.39 179.84,186.41 181.42,186.39 182.93,186.31 184.38,186.18 185.75,185.98 187.04,185.71 188.24,185.35 189.36,184.90 190.39,184.38 191.36,183.80 192.27,183.18 193.15,182.54 194.01,181.90 194.86,181.26 195.72,180.66 196.59,180.10 197.48,179.60 198.38,179.15 199.28,178.78 200.18,178.47 201.07,178.25 201.94,178.11 202.79,178.06 203.61,178.10 204.41,178.24 205.20,178.46 205.96,178.74 206.72,179.10 207.46,179.50 208.20,179.95 208.94,180.44 209.68,180.95 210.43,181.49 211.18,182.05 211.92,182.63 212.67,183.22 213.43,183.82 214.18,184.43 214.93,185.04" width="3.50"/>
    <edge id="-18" from="37" to="Custom24" priority="-1" numLanes="1" speed="13.90" shape="217.32,187.34 216.90,187.64 216.47,187.96 216.00,188.36 215.46,188.87 214.85,189.51 214.15,190.33 213.33,191.36 212.37,192.64 211.27,194.18 210.04,195.98 208.71,198.01 207.33,200.23 205.90,202.63 204.48,205.16 203.07,207.82 201.72,210.56 200.46,213.37 199.28,216.25 198.18,219.21 197.18,222.26 196.26,225.42 195.44,228.69 194.72,232.08 194.09,235.60 193.55,239.27 193.11,243.04 192.75,246.90 192.47,250.81 192.26,254.73 192.12,258.63 192.04,262.49 192.02,266.27 192.04,269.95 192.10,273.52 192.19,277.01 192.31,280.41 192.43,283.74 192.56,287.01 192.68,290.24 192.79,293.42 192.88,296.57 192.94,299.68 193.00,302.75 193.05,305.76 193.09,308.70 193.14,311.58 193.20,314.37 193.28,317.06 193.38,319.67 193.50,322.18 193.63,324.62 193.77,326.99 193.93,329.32 194.10,331.61 194.27,333.87 194.44,336.12" width="3.50"/>
    <edge id="-19" from="30" to="37" priority="-1" numLanes="1" speed="13.90" shape="261.38,187.21 258.28,186.02 255.21,184.86 252.18,183.75 249.22,182.73 246.34,181.82 243.59,181.04 240.96,180.44 238.50,180.04 236.21,179.85 234.09,179.85 232.14,180.03 230.34,180.34 228.69,180.77 227.17,181.29 225.79,181.86 224.53,182.46 223.38,183.07 222.33,183.67 221.37,184.28 220.47,184.89 219.63,185.51 218.84,186.12 218.07,186.73 217.32,187.34" width="3.50"/>
    <edge id="-2" from="40" to="30" priority="-1" numLanes="1" speed="13.90" shape="313.72,214.00 313.38,213.51 313.03,213.00 312.67,212.45 312.28,211.85 311.87,211.17 311.41,210.40 310.90,209.52 310.33,208.51 309.70,207.37 308.98,206.10 308.15,204.73 307.19,203.30 306.08,201.82 304.80,200.32 303.33,198.83 301.64,197.37 299.72,195.97 297.62,194.63 295.38,193.38 293.05,192.22 290.68,191.17 288.31,190.23 286.01,189.42 283.80,188.75 281.74,188.23 279.81,187.84 278.00,187.56 276.28,187.38 274.64,187.27 273.06,187.22 271.51,187.21 269.99,187.21" width="3.50"/>
    <edge id="-20" from="38" to="Custom25" priority="-1" numLanes="1" speed="13.90" shape="44.06,172.03 43.29,175.73 42.58,179.46 41.97,183.26 41.51,187.15 41.26,191.17 41.26,195.35 41.57,199.73 42.25,204.32 43.31,209.16 44.72,214.20 46.43,219.39 48.38,224.65 50.51,229.95 52.76,235.21 55.08,240.39 57.41,245.42 59.71,250.27 62.00,255.01 64.32,259.74 66.73,264.54 69.27,269.52 71.97,274.76 74.88,280.36 78.05,286.42 81.49,292.97 85.14,299.91 88.92,307.04 92.73,314.21 96.48,321.23 100.09,327.95 103.47,334.18 106.54,339.75 109.22,344.54 111.55,348.58 113.60,351.98 115.41,354.81 117.05,357.17 118.58,359.13 120.06,360.80 121.54,362.25 123.07,363.56 124.67,364.75 126.34,365.80 128.10,366.73 129.94,367.52 131.87,368.18 133.90,368.70 136.04,369.08 138.28,369.32 140.63,369.43 143.07,369.39 145.62,369.21 148.26,368.89 151.00,368.44 153.82,367.84 156.72,367.11 159.70,366.24 162.75,365.24 165.87,364.15 169.03,362.97 172.23,361.72 175.46,360.41 178.71,359.08 181.97,357.72" width="3.50"/>
    <edge id="-21" from="35" to="36" priority="-1" numLanes="1" speed="13.90" shape="202.63,131.78 198.58,133.47 194.54,135.10 190.54,136.65 186.58,138.06 182.68,139.28 178.85,140.28 175.11,141.00 171.47,141.40 167.95,141.45 164.54,141.17 161.21,140.63 157.95,139.85 154.76,138.89 151.61,137.79 148.49,136.60 145.38,135.36" width="3.50"/>
    <edge id="-22" from="34" to="35" priority="-1" numLanes="1" speed="13.90" width="3.50"/>
    <edge id="-24" from="Custom29" to="34" priority="-1" numLanes="1" speed="13.90" width="3.50"/>
    <edge id="-25" from="38" to="29" priority="-1" numLanes="1" speed="13.90" shape="44.07,172.04 46.67,159.37 49.28,146.74 51.91,134.19 54.57,121.79 57.28,109.57 60.05,97.57 62.89,85.85 65.81,74.44 68.82,63.41 72.00,52.87 75.40,42.95 79.09,33.78 83.14,25.49 87.62,18.20 92.58,12.04 98.10,7.15 104.22,3.61 110.80,1.33 117.72,0.17 124.81,0.00 131.94,0.69 138.96,2.11 145.71,4.13 152.05,6.60 157.87,9.42 163.21,12.53 168.12,15.88 172.69,19.44 176.98,23.16 181.06,27.01 185.00,30.93 188.87,34.90" width="3.50"/>
    <edge id="-26" from="Custom26" to="30" priority="-1" numLanes="1" speed="13.90" shape="206.91,357.71 212.88,360.26 218.85,362.73 224.81,365.03 230.75,367.07 236.67,368.79 242.57,370.09 248.45,370.89 254.28,371.11 260.07,370.69 265.75,369.66 271.23,368.08 276.44,366.02 281.31,363.53 285.76,360.67 289.72,357.50 293.10,354.08 295.84,350.45 297.97,346.62 299.49,342.58 300.44,338.31 300.84,333.80 300.72,329.04 300.11,324.01 299.02,318.70 297.49,313.12 295.61,307.30 293.44,301.31 291.07,295.19 288.58,289.01 286.06,282.83 283.58,276.69 281.23,270.66 279.08,264.78 277.12,259.06 275.36,253.49 273.79,248.07 272.39,242.78 271.16,237.63 270.10,232.61 269.19,227.71 268.43,222.93 267.80,218.25 267.28,213.66 266.85,209.14 266.50,204.68 266.20,200.27 265.93,195.88 265.69,191.51" width="3.50"/>
    <edge id="-3" from="Custom14" to="27" priority="-1" numLanes="1" speed="13.90" shape="121.68,210.72 121.53,208.12 121.40,205.53 121.28,202.98 121.19,200.47 121.14,198.03 121.14,195.67 121.20,193.41 121.33,191.27 121.53,189.24 121.79,187.34 122.12,185.53 122.49,183.80 122.91,182.14 123.35,180.53 123.81,178.95 124.28,177.38" width="3.50"/>
    <edge id="-4" from="28" to="29" priority="-1" numLanes="1" speed="13.90" shape="153.91,93.04 155.79,90.49 157.66,87.95 159.51,85.44 161.33,82.97 163.12,80.55 164.85,78.20 166.52,75.94 168.13,73.77 169.66,71.70 171.12,69.72 172.52,67.79 173.89,65.89 175.22,64.00 176.53,62.09 177.84,60.13 179.15,58.09 180.48,55.96 181.82,53.75 183.18,51.45 184.54,49.10 185.92,46.69 187.30,44.25 188.68,41.78 190.07,39.30" width="3.50"/>
    <edge id="-5" from="36" to="28" priority="-1" numLanes="1" speed="13.90" shape="142.14,134.34 142.41,133.65 142.69,132.93 142.98,132.17 143.28,131.35 143.60,130.45 143.94,129.44 144.31,128.31 144.71,127.03 145.15,125.59 145.62,124.02 146.10,122.34 146.61,120.58 147.11,118.77 147.62,116.95 148.11,115.14 148.59,113.37 149.04,111.67 149.48,110.02 149.89,108.43 150.29,106.89 150.67,105.38 151.05,103.89 151.41,102.43 151.78,100.97" width="3.50"/>
    <edge id="-6" from="27" to="36" priority="-1" numLanes="1" speed="13.90" shape="126.83,169.20 127.21,167.98 127.59,166.75 128.00,165.50 128.43,164.21 128.91,162.88 129.44,161.50 130.03,160.05 130.69,158.52 131.43,156.91 132.23,155.24 133.08,153.52 133.95,151.78 134.83,150.04 135.70,148.32 136.55,146.64 137.35,145.03 138.09,143.51 138.77,142.06 139.40,140.67 140.00,139.34 140.56,138.05 141.10,136.80 141.62,135.56 142.14,134.34" width="3.50"/>
    <edge id="-7" from="Custom16" to="Custom15" priority="-1" numLanes="1" speed="13.90" shape="0.00,86.92 1.37,85.85 2.72,84.76 4.03,83.65 5.28,82.50 6.44,81.31 7.51,80.05 8.45,78.73 9.25,77.32 9.90,75.82 10.41,74.23 10.84,72.55 11.21,70.80 11.55,68.98 11.92,67.10 12.33,65.16 12.82,63.16 13.43,61.12 14.16,59.08 15.00,57.07 15.96,55.13 17.03,53.29 18.20,51.61 19.49,50.11 20.88,48.83 22.37,47.81 23.94,47.03 25.59,46.47 27.28,46.12 29.00,45.96 30.73,45.96 32.45,46.11 34.15,46.39 35.82,46.78 37.44,47.26 39.03,47.84 40.60,48.50 42.14,49.24 43.67,50.04 45.19,50.90 46.70,51.81 48.21,52.76 49.72,53.74 51.23,54.75 52.75,55.79 54.26,56.85 55.77,57.92 57.28,59.00 58.79,60.09" width="3.50"/>
    <edge id="-8" from="Custom18" to="Custom17" priority="-1" numLanes="1" speed="13.90" shape="58.78,60.09 60.70,61.03 62.63,61.98 64.55,62.92 66.47,63.86 68.40,64.80 70.32,65.75 72.25,66.69 74.17,67.63" width="3.50"/>
    <edge id="-9" from="33" to="29" priority="-1" numLanes="1" speed="13.90" shape="303.93,62.46 303.04,59.81 302.13,57.17 301.18,54.56 300.17,52.00 299.07,49.49 297.87,47.06 296.54,44.70 295.07,42.45 293.43,40.31 291.67,38.30 289.80,36.44 287.86,34.76 285.89,33.25 283.91,31.96 281.97,30.89 280.10,30.06 278.31,29.48 276.60,29.12 274.95,28.93 273.35,28.87 271.78,28.89 270.22,28.96 268.65,29.01 267.05,29.02 265.41,28.94 263.74,28.79 262.02,28.60 260.26,28.39 258.47,28.18 256.64,28.00 254.77,27.88 252.88,27.85 250.95,27.91 249.01,28.06 247.06,28.29 245.13,28.57 243.22,28.90 241.36,29.26 239.55,29.63 237.80,29.99 236.14,30.34 234.53,30.68 232.97,31.02 231.41,31.36 229.85,31.72 228.26,32.11 226.61,32.54 224.89,33.01 223.07,33.53 221.17,34.08 219.20,34.65 217.19,35.20 215.13,35.72 213.07,36.18 210.99,36.57 208.94,36.85 206.91,37.02 204.91,37.09 202.93,37.06 200.98,36.95 199.03,36.79 197.10,36.58 195.18,36.34 193.26,36.08" width="3.50"/>
    <edge id="0" from="39" to="Custom13" priority="-1" numLanes="1" speed="13.90" shape="320.24,226.44 320.74,227.53 321.24,228.63 321.76,229.76 322.29,230.93 322.85,232.16 323.45,233.46 324.07,234.84 324.74,236.32 325.47,237.91 326.25,239.59 327.10,241.34 328.04,243.12 329.06,244.93 330.20,246.74 331.44,248.52 332.81,250.25 334.32,251.91 335.96,253.46 337.72,254.87 339.61,256.09 341.61,257.10 343.72,257.85 345.94,258.32 348.26,258.46 350.67,258.25 353.17,257.72 355.74,256.92 358.37,255.90 361.04,254.69 363.75,253.35 366.49,251.92 369.24,250.44" width="3.50"/>
    <edge id="1" from="40" to="39" priority="-1" numLanes="1" speed="13.90" shape="313.72,214.00 314.14,214.74 314.56,215.48 314.98,216.23 315.39,216.98 315.81,217.73 316.22,218.49 316.63,219.26 317.04,220.03 317.45,220.81 317.86,221.60 318.26,222.40 318.66,223.20 319.06,224.01 319.46,224.81 319.85,225.63 320.25,226.44" width="3.50"/>
    <edge id="10" from="32" to="30" priority="-1" numLanes="1" speed="13.90" shape="313.69,110.73 313.24,112.91 312.76,115.09 312.25,117.26 311.68,119.41 311.04,121.55 310.29,123.67 309.43,125.76 308.44,127.83 307.30,129.86 306.02,131.84 304.62,133.78 303.11,135.66 301.51,137.46 299.83,139.19 298.09,140.82 296.31,142.36 294.50,143.80 292.67,145.17 290.84,146.49 289.00,147.79 287.17,149.10 285.36,150.46 283.58,151.90 281.83,153.44 280.14,155.11 278.50,156.89 276.94,158.76 275.46,160.70 274.06,162.67 272.78,164.66 271.60,166.65 270.56,168.61 269.65,170.51 268.85,172.37 268.16,174.19 267.56,175.98 267.03,177.74 266.54,179.47 266.10,181.20 265.66,182.92" width="3.50"/>
    <edge id="11" from="33" to="32" priority="-1" numLanes="1" speed="13.90" shape="303.93,62.46 305.15,68.49 306.38,74.52 307.60,80.56 308.82,86.59 310.04,92.63 311.26,98.66 312.48,104.69 313.70,110.73" width="3.50"/>
    <edge id="12" from="Custom19" to="Custom20" priority="-1" numLanes="1" speed="13.90" shape="298.09,63.61 299.31,69.65 300.53,75.68 301.75,81.71 302.98,87.75 304.20,93.78 304.30,94.30 305.42,99.82 306.64,105.85 307.86,111.89" width="2.50"/>
    <edge id="13" from="28" to="Custom21" priority="-1" numLanes="1" speed="13.90" shape="148.88,95.95 147.87,95.45 146.86,94.95 145.85,94.44 144.83,93.92 143.80,93.39 142.77,92.84 141.72,92.28 140.65,91.70 139.57,91.09 138.47,90.46 137.35,89.81 136.20,89.13 135.04,88.42 133.85,87.69 132.63,86.93 131.39,86.14 130.12,85.32 128.81,84.49 127.47,83.66 126.07,82.83 124.63,82.03 123.13,81.27 121.57,80.56 119.94,79.92 118.24,79.35 116.46,78.84 114.62,78.39 112.70,77.99 110.71,77.61 108.66,77.24 106.54,76.89 104.35,76.52 102.10,76.14 99.80,75.73 97.50,75.31 95.20,74.86 92.94,74.38 90.75,73.88 88.64,73.36 86.64,72.80 84.78,72.22 83.04,71.61 81.40,70.98 79.85,70.33 78.37,69.67 76.94,69.00 75.55,68.32 74.17,67.63" width="3.50"/>
    <edge id="14" from="27" to="Custom22" priority="-1" numLanes="1" speed="13.90" shape="121.93,172.17 120.89,172.09 119.77,171.98 118.52,171.83 117.08,171.62 115.40,171.32 113.43,170.93 111.10,170.42 108.37,169.78 105.18,168.98 101.59,168.04 97.64,166.99 93.39,165.84 88.91,164.61 84.26,163.32 79.48,161.99 74.65,160.65" width="3.50"/>
    <edge id="16" from="Custom23" to="28" priority="-1" numLanes="1" speed="13.90" shape="226.54,75.47 224.36,77.12 222.18,78.76 220.03,80.37 217.91,81.95 215.84,83.48 213.81,84.95 211.85,86.34 209.97,87.66 208.16,88.88 206.42,90.02 204.74,91.09 203.10,92.11 201.49,93.08 199.89,94.04 198.28,94.98 196.66,95.92 195.00,96.87 193.32,97.82 191.63,98.74 189.93,99.62 188.24,100.43 186.56,101.15 184.91,101.75 183.28,102.23 181.70,102.56 180.16,102.75 178.67,102.82 177.21,102.80 175.79,102.69 174.42,102.52 173.09,102.30 171.79,102.05 170.54,101.79 169.32,101.52 168.15,101.25 167.03,100.97 165.95,100.69 164.91,100.42 163.93,100.15 162.99,99.89 162.10,99.64 161.26,99.40 160.46,99.17 159.69,98.94 158.95,98.72 158.23,98.51 157.51,98.29 156.81,98.08" width="3.50"/>
    <edge id="17" from="37" to="27" priority="-1" numLanes="1" speed="13.90" shape="214.93,185.04 214.18,184.43 213.43,183.82 212.67,183.22 211.92,182.63 211.18,182.05 210.43,181.49 209.68,180.95 208.94,180.44 208.20,179.95 207.46,179.50 206.72,179.10 205.96,178.74 205.20,178.46 204.41,178.24 203.61,178.10 202.79,178.06 201.94,178.11 201.07,178.25 200.18,178.47 199.28,178.78 198.38,179.15 197.48,179.60 196.59,180.10 195.72,180.66 194.86,181.26 194.01,181.90 193.15,182.54 192.27,183.18 191.36,183.80 190.39,184.38 189.36,184.90 188.24,185.35 187.04,185.71 185.75,185.98 184.38,186.18 182.93,186.31 181.42,186.39 179.84,186.41 178.20,186.39 176.51,186.33 174.78,186.25 173.00,186.13 171.18,185.99 169.31,185.80 167.40,185.57 165.45,185.30 163.46,184.97 161.43,184.60 159.36,184.16 157.28,183.68 155.20,183.17 153.14,182.63 151.14,182.09 149.21,181.54 147.38,181.01 145.66,180.50 144.07,180.02 142.62,179.58 141.28,179.16 140.04,178.77 138.90,178.40 137.84,178.03 136.85,177.68 135.92,177.34 135.04,176.99 134.20,176.64 133.40,176.30 132.62,175.95 131.87,175.61 131.14,175.26 130.42,174.92 129.70,174.57" width="3.50"/>
    <edge id="18" from="Custom24" to="37" priority="-1" numLanes="1" speed="13.90" shape="194.44,336.12 194.27,333.87 194.10,331.61 193.93,329.32 193.77,326.99 193.63,324.62 193.50,322.18 193.38,319.67 193.28,317.06 193.20,314.37 193.14,311.58 193.09,308.70 193.05,305.76 193.00,302.75 192.94,299.68 192.88,296.57 192.79,293.42 192.68,290.24 192.56,287.01 192.43,283.74 192.31,280.41 192.19,277.01 192.10,273.52 192.04,269.95 192.02,266.27 192.04,262.49 192.12,258.63 192.26,254.73 192.47,250.81 192.75,246.90 193.11,243.04 193.55,239.27 194.09,235.60 194.72,232.08 195.44,228.69 196.26,225.42 197.18,222.26 198.18,219.21 199.28,216.25 200.46,213.37 201.72,210.56 203.07,207.82 204.48,205.16 205.90,202.63 207.33,200.23 208.71,198.01 210.04,195.98 211.27,194.18 212.37,192.64 213.33,191.36 214.15,190.33 214.85,189.51 215.46,188.87 216.00,188.36 216.47,187.96 216.90,187.64 217.32,187.34" width="3.50"/>
    <edge id="19" from="37" to="30" priority="-1" numLanes="1" speed="13.90" shape="217.32,187.34 218.07,186.73 218.84,186.12 219.63,185.51 220.47,184.89 221.37,184.28 222.33,183.67 223.38,183.07 224.53,182.46 225.79,181.86 227.17,181.29 228.69,180.77 230.34,180.34 232.14,180.03 234.09,179.85 236.21,179.85 238.50,180.04 240.96,180.44 243.59,181.04 246.34,181.82 249.22,182.73 252.18,183.75 255.21,184.86 258.28,186.02 261.38,187.21" width="3.50"/>
    <edge id="2" from="30" to="40" priority="-1" numLanes="1" speed="13.90" shape="269.99,187.21 271.51,187.21 273.06,187.22 274.64,187.27 276.28,187.38 278.00,187.56 279.81,187.84 281.74,188.23 283.80,188.75 286.01,189.42 288.31,190.23 290.68,191.17 293.05,192.22 295.38,193.38 297.62,194.63 299.72,195.97 301.64,197.37 303.33,198.83 304.80,200.32 306.08,201.82 307.19,203.30 308.15,204.73 308.98,206.10 309.70,207.37 310.33,208.51 310.90,209.52 311.41,210.40 311.87,211.17 312.28,211.85 312.67,212.45 313.03,213.00 313.38,213.51 313.72,214.00" width="3.50"/>
    <edge id="20" from="Custom25" to="38" priority="-1" numLanes="1" speed="13.90" shape="181.97,357.72 178.71,359.08 175.46,360.41 172.23,361.72 169.03,362.97 165.87,364.15 162.75,365.24 159.70,366.24 156.72,367.11 153.82,367.84 151.00,368.44 148.26,368.89 145.62,369.21 143.07,369.39 140.63,369.43 138.28,369.32 136.04,369.08 133.90,368.70 131.87,368.18 129.94,367.52 128.10,366.73 126.34,365.80 124.67,364.75 123.07,363.56 121.54,362.25 120.06,360.80 118.58,359.13 117.05,357.17 115.41,354.81 113.60,351.98 111.55,348.58 109.22,344.54 106.54,339.75 103.47,334.18 100.09,327.95 96.48,321.23 92.73,314.21 88.92,307.04 85.14,299.91 81.49,292.97 78.05,286.42 74.88,280.36 71.97,274.76 69.27,269.52 66.73,264.54 64.32,259.74 62.00,255.01 59.71,250.27 57.41,245.42 55.08,240.39 52.76,235.21 50.51,229.95 48.38,224.65 46.43,219.39 44.72,214.20 43.31,209.16 42.25,204.32 41.57,199.73 41.26,195.35 41.26,191.17 41.51,187.15 41.97,183.26 42.58,179.46 43.29,175.73 44.06,172.03" width="3.50"/>
    <edge id="21" from="36" to="35" priority="-1" numLanes="1" speed="13.90" shape="145.38,135.36 148.49,136.60 151.61,137.79 154.76,138.89 157.95,139.85 161.21,140.63 164.54,141.17 167.95,141.45 171.47,141.40 175.11,141.00 178.85,140.28 182.68,139.28 186.58,138.06 190.54,136.65 194.54,135.10 198.58,133.47 202.63,131.78" width="3.50"/>
    <edge id="22" from="35" to="34" priority="-1" numLanes="1" speed="13.90" width="3.50"/>
    <edge id="23" from="Custom27" to="Custom28" priority="-1" numLanes="1" speed="13.90" shape="205.04,137.26 239.98,117.79" width="2.50"/>
    <edge id="24" from="34" to="Custom29" priority="-1" numLanes="1" speed="13.90" width="3.50"/>
    <edge id="25" from="29" to="38" priority="-1" numLanes="1" speed="13.90" shape="188.87,34.90 185.00,30.93 181.06,27.01 176.98,23.16 172.69,19.44 168.12,15.88 163.21,12.53 157.87,9.42 152.05,6.60 145.71,4.13 138.96,2.11 131.94,0.69 124.81,0.00 117.72,0.17 110.80,1.33 104.22,3.61 98.10,7.15 92.58,12.04 87.62,18.20 83.14,25.49 79.09,33.78 75.40,42.95 72.00,52.87 68.82,63.41 65.81,74.44 62.89,85.85 60.05,97.57 57.28,109.57 54.57,121.79 51.91,134.19 49.28,146.74 46.67,159.37 44.07,172.04" width="3.50"/>
    <edge id="26" from="30" to="Custom26" priority="-1" numLanes="1" speed="13.90" shape="265.69,191.51 265.93,195.88 266.20,200.27 266.50,204.68 266.85,209.14 267.28,213.66 267.80,218.25 268.43,222.93 269.19,227.71 270.10,232.61 271.16,237.63 272.39,242.78 273.79,248.07 275.36,253.49 277.12,259.06 279.08,264.78 281.23,270.66 283.58,276.69 286.06,282.83 288.58,289.01 291.07,295.19 293.44,301.31 295.61,307.30 297.49,313.12 299.02,318.70 300.11,324.01 300.72,329.04 300.84,333.80 300.44,338.31 299.49,342.58 297.97,346.62 295.84,350.45 293.10,354.08 289.72,357.50 285.76,360.67 281.31,363.53 276.44,366.02 271.23,368.08 265.75,369.66 260.07,370.69 254.28,371.11 248.45,370.89 242.57,370.09 236.67,368.79 230.75,367.07 224.81,365.03 218.85,362.73 212.88,360.26 206.91,357.71" width="3.50"/>
    <edge id="3" from="27" to="Custom14" priority="-1" numLanes="1" speed="13.90" shape="124.28,177.38 123.81,178.95 123.35,180.53 122.91,182.14 122.49,183.80 122.12,185.53 121.79,187.34 121.53,189.24 121.33,191.27 121.20,193.41 121.14,195.67 121.14,198.03 121.19,200.47 121.28,202.98 121.40,205.53 121.53,208.12 121.68,210.72" width="3.50"/>
    <edge id="4" from="29" to="28" priority="-1" numLanes="1" speed="13.90" shape="190.07,39.30 188.68,41.78 187.30,44.25 185.92,46.69 184.54,49.10 183.18,51.45 181.82,53.75 180.48,55.96 179.15,58.09 177.84,60.13 176.53,62.09 175.22,64.00 173.89,65.89 172.52,67.79 171.12,69.72 169.66,71.70 168.13,73.77 166.52,75.94 164.85,78.20 163.12,80.55 161.33,82.97 159.51,85.44 157.66,87.95 155.79,90.49 153.91,93.04" width="3.50"/>
    <edge id="5" from="28" to="36" priority="-1" numLanes="1" speed="13.90" shape="151.78,100.97 151.41,102.43 151.05,103.89 150.67,105.38 150.29,106.89 149.89,108.43 149.48,110.02 149.04,111.67 148.59,113.37 148.11,115.14 147.62,116.95 147.11,118.77 146.61,120.58 146.10,122.34 145.62,124.02 145.15,125.59 144.71,127.03 144.31,128.31 143.94,129.44 143.60,130.45 143.28,131.35 142.98,132.17 142.69,132.93 142.41,133.65 142.14,134.34" width="3.50"/>
    <edge id="6" from="36" to="27" priority="-1" numLanes="1" speed="13.90" shape="142.14,134.34 141.62,135.56 141.10,136.80 140.56,138.05 140.00,139.34 139.40,140.67 138.77,142.06 138.09,143.51 137.35,145.03 136.55,146.64 135.70,148.32 134.83,150.04 133.95,151.78 133.08,153.52 132.23,155.24 131.43,156.91 130.69,158.52 130.03,160.05 129.44,161.50 128.91,162.88 128.43,164.21 128.00,165.50 127.59,166.75 127.21,167.98 126.83,169.20" width="3.50"/>
    <edge id="7" from="Custom15" to="Custom16" priority="-1" numLanes="1" speed="13.90" shape="58.79,60.09 57.28,59.00 55.77,57.92 54.26,56.85 52.75,55.79 51.23,54.75 49.72,53.74 48.21,52.76 46.70,51.81 45.19,50.90 43.67,50.04 42.14,49.24 40.60,48.50 39.03,47.84 37.44,47.26 35.82,46.78 34.15,46.39 32.45,46.11 30.73,45.96 29.00,45.96 27.28,46.12 25.59,46.47 23.94,47.03 22.37,47.81 20.88,48.83 19.49,50.11 18.20,51.61 17.03,53.29 15.96,55.13 15.00,57.07 14.16,59.08 13.43,61.12 12.82,63.16 12.33,65.16 11.92,67.10 11.55,68.98 11.21,70.80 10.84,72.55 10.41,74.23 9.90,75.82 9.25,77.32 8.45,78.73 7.51,80.05 6.44,81.31 5.28,82.50 4.03,83.65 2.72,84.76 1.37,85.85 0.00,86.92" width="3.50"/>
    <edge id="8" from="Custom17" to="Custom18" priority="-1" numLanes="1" speed="13.90" shape="74.17,67.63 72.25,66.69 70.32,65.75 68.40,64.80 66.47,63.86 64.55,62.92 62.63,61.98 60.70,61.03 58.78,60.09" width="3.50"/>
    <edge id="9" from="29" to="33" priority="-1" numLanes="1" speed="13.90" shape="193.26,36.08 195.18,36.34 197.10,36.58 199.03,36.79 200.98,36.95 202.93,37.06 204.91,37.09 206.91,37.02 208.94,36.85 210.99,36.57 213.07,36.18 215.13,35.72 217.19,35.20 219.20,34.65 221.17,34.08 223.07,33.53 224.89,33.01 226.61,32.54 228.26,32.11 229.85,31.72 231.41,31.36 232.97,31.02 234.53,30.68 236.14,30.34 237.80,29.99 239.55,29.63 241.36,29.26 243.22,28.90 245.13,28.57 247.06,28.29 249.01,28.06 250.95,27.91 252.88,27.85 254.77,27.88 256.64,28.00 258.47,28.18 260.26,28.39 262.02,28.60 263.74,28.79 265.41,28.94 267.05,29.02 268.65,29.01 270.22,28.96 271.78,28.89 273.35,28.87 274.95,28.93 276.60,29.12 278.31,29.48 280.10,30.06 281.97,30.89 283.91,31.96 285.89,33.25 287.86,34.76 289.80,36.44 291.67,38.30 293.43,40.31 295.07,42.45 296.54,44.70 297.87,47.06 299.07,49.49 300.17,52.00 301.18,54.56 302.13,57.17 303.04,59.81 303.93,62.46" width="3.50"/>
    <edge id="gneE10" from="Custom25" to="Custom26" priority="1" numLanes="1" speed="13.89"/>
    <edge id="gneE11" from="Custom26" to="Custom24" priority="1" numLanes="1" speed="13.89"/>
    <edge id="gneE12" from="Custom24" to="Custom25" priority="1" numLanes="1" speed="13.89"/>
</edges>
