<?xml version="1.0" encoding="UTF-8"?>

<!-- generated on 2025-10-17 17:23:44 by Eclipse SUMO netconvert Version 1.24.0
<netconvertConfiguration xmlns:xsi="http://www.w3.org/2001/XMLSchema-instance" xsi:noNamespaceSchemaLocation="http://sumo.dlr.de/xsd/netconvertConfiguration.xsd">

    <input>
        <sumo-net-file value="C:\Users\ACER\Documents\CS\Multimodal Interaction\Webots\worlds\village_realistic_net\sumo.net.xml"/>
    </input>

    <output>
        <plain-output-prefix value="plain"/>
    </output>

    <processing>
        <geometry.min-radius.fix.railways value="false"/>
        <geometry.avoid-overlap value="false"/>
        <geometry.max-grade.fix value="false"/>
        <offset.disable-normalization value="true"/>
        <lefthand value="0"/>
    </processing>

    <junctions>
        <no-turnarounds value="true"/>
        <junctions.corner-detail value="0"/>
        <junctions.limit-turn-speed value="-1.00"/>
        <rectangular-lane-cut value="0"/>
    </junctions>

    <pedestrian>
        <walkingareas value="0"/>
    </pedestrian>

</netconvertConfiguration>
-->

<nodes version="1.20" xmlns:xsi="http://www.w3.org/2001/XMLSchema-instance" xsi:noNamespaceSchemaLocation="http://sumo.dlr.de/xsd/nodes_file.xsd">
    <location netOffset="-45.13,679.11" convBoundary="0.00,0.00,369.24,371.11" origBoundary="45.13,-679.11,414.37,-308.00" projParameter="!"/>

    <node id="27" x="125.58" y="173.28" type="priority" shape="129.96,170.98 127.88,177.67 121.20,175.58 123.28,168.90"/>
    <node id="28" x="152.85" y="97.01" type="priority" shape="157.13,94.53 155.32,101.29 148.56,99.48 150.37,92.72"/>
    <node id="29" x="190.74" y="36.77" type="priority" shape="193.59,33.91 191.78,40.67 186.83,35.72"/>
    <node id="30" x="265.69" y="187.21" type="priority" shape="269.19,190.71 262.19,190.71 262.19,183.71 269.19,183.71"/>
    <node id="32" x="313.70" y="110.73" type="priority"/>
    <node id="33" x="303.93" y="62.46" type="priority"/>
    <node id="34" x="237.56" y="112.31" type="priority"/>
    <node id="35" x="202.63" y="131.78" type="priority"/>
    <node id="36" x="143.76" y="134.85" type="priority"/>
    <node id="37" x="217.32" y="187.34" type="priority"/>
    <node id="38" x="44.07" y="172.04" type="priority"/>
    <node id="39" x="320.25" y="226.44" type="priority"/>
    <node id="40" x="313.72" y="214.00" type="priority"/>
    <node id="Custom13" x="369.24" y="250.44" type="priority"/>
    <node id="Custom14" x="121.68" y="210.72" type="priority"/>
    <node id="Custom15" x="58.79" y="60.09" type="priority"/>
    <node id="Custom16" x="0.00" y="86.92" type="priority"/>
    <node id="Custom17" x="74.17" y="67.63" type="priority"/>
    <node id="Custom18" x="58.78" y="60.09" type="priority"/>
    <node id="Custom19" x="299.32" y="63.36" type="dead_end"/>
    <node id="Custom20" x="309.09" y="111.64" type="dead_end"/>
    <node id="Custom21" x="74.17" y="67.63" type="priority"/>
    <node id="Custom22" x="75.12" y="158.96" type="priority"/>
    <node id="Custom23" x="226.54" y="75.47" type="priority"/>
    <node id="Custom24" x="194.44" y="336.12" type="priority"/>
    <node id="Custom25" x="181.97" y="357.72" type="priority"/>
    <node id="Custom26" x="206.91" y="357.71" type="priority"/>
    <node id="Custom27" x="204.43" y="136.17" type="dead_end"/>
    <node id="Custom28" x="239.37" y="116.70" type="dead_end"/>
    <node id="Custom29" x="250.66" y="105.00" type="priority"/>
</nodes>
