<?xml version="1.0" encoding="UTF-8"?>

<!-- generated on 2025-10-17 17:23:44 by Eclipse SUMO netconvert Version 1.24.0
<netconvertConfiguration xmlns:xsi="http://www.w3.org/2001/XMLSchema-instance" xsi:noNamespaceSchemaLocation="http://sumo.dlr.de/xsd/netconvertConfiguration.xsd">

    <input>
        <sumo-net-file value="C:\Users\ACER\Documents\CS\Multimodal Interaction\Webots\worlds\village_realistic_net\sumo.net.xml"/>
    </input>

    <output>
        <plain-output-prefix value="plain"/>
    </output>

    <processing>
        <geometry.min-radius.fix.railways value="false"/>
        <geometry.avoid-overlap value="false"/>
        <geometry.max-grade.fix value="false"/>
        <offset.disable-normalization value="true"/>
        <lefthand value="0"/>
    </processing>

    <junctions>
        <no-turnarounds value="true"/>
        <junctions.corner-detail value="0"/>
        <junctions.limit-turn-speed value="-1.00"/>
        <rectangular-lane-cut value="0"/>
    </junctions>

    <pedestrian>
        <walkingareas value="0"/>
    </pedestrian>

</netconvertConfiguration>
-->

<connections version="1.20" xmlns:xsi="http://www.w3.org/2001/XMLSchema-instance" xsi:noNamespaceSchemaLocation="http://sumo.dlr.de/xsd/connections_file.xsd">
    <connection from="-0" to="-1" fromLane="0" toLane="0"/>
    <connection from="-0" to="0" fromLane="0" toLane="0"/>

    <connection from="-1" to="-2" fromLane="0" toLane="0"/>
    <connection from="-1" to="1" fromLane="0" toLane="0"/>

    <connection from="-10" to="-11" fromLane="0" toLane="0"/>
    <connection from="-10" to="10" fromLane="0" toLane="0"/>

    <connection from="-11" to="-9" fromLane="0" toLane="0"/>
    <connection from="-11" to="11" fromLane="0" toLane="0"/>

    <connection from="-13" to="-4" fromLane="0" toLane="0"/>
    <connection from="-13" to="-16" fromLane="0" toLane="0"/>
    <connection from="-13" to="5" fromLane="0" toLane="0"/>
    <connection from="-13" to="13" fromLane="0" toLane="0"/>

    <connection from="-14" to="-6" fromLane="0" toLane="0"/>
    <connection from="-14" to="-17" fromLane="0" toLane="0"/>
    <connection from="-14" to="3" fromLane="1" toLane="0"/>
    <connection from="-14" to="14" fromLane="1" toLane="0"/>

    <connection from="-16" to="16" fromLane="0" toLane="0"/>

    <connection from="-17" to="19" fromLane="0" toLane="0"/>
    <connection from="-17" to="-18" fromLane="0" toLane="0"/>
    <connection from="-17" to="17" fromLane="0" toLane="0"/>

    <connection from="-18" to="gneE12" fromLane="0" toLane="0"/>

    <connection from="-19" to="-18" fromLane="0" toLane="0"/>
    <connection from="-19" to="17" fromLane="0" toLane="0"/>
    <connection from="-19" to="19" fromLane="0" toLane="0"/>

    <connection from="-2" to="26" fromLane="0" toLane="0"/>
    <connection from="-2" to="-19" fromLane="0" toLane="0"/>
    <connection from="-2" to="-10" fromLane="0" toLane="0"/>
    <connection from="-2" to="2" fromLane="0" toLane="0"/>

    <connection from="-20" to="gneE10" fromLane="0" toLane="0"/>

    <connection from="-21" to="6" fromLane="0" toLane="0"/>
    <connection from="-21" to="-5" fromLane="0" toLane="0"/>
    <connection from="-21" to="21" fromLane="0" toLane="0"/>

    <connection from="-22" to="-21" fromLane="0" toLane="0"/>
    <connection from="-22" to="22" fromLane="0" toLane="0"/>

    <connection from="-24" to="-22" fromLane="0" toLane="0"/>
    <connection from="-24" to="24" fromLane="0" toLane="0"/>

    <connection from="-25" to="9" fromLane="0" toLane="0"/>
    <connection from="-25" to="4" fromLane="0" toLane="0"/>
    <connection from="-25" to="25" fromLane="0" toLane="0"/>

    <connection from="-26" to="-19" fromLane="0" toLane="0"/>
    <connection from="-26" to="-10" fromLane="0" toLane="0"/>
    <connection from="-26" to="2" fromLane="0" toLane="0"/>
    <connection from="-26" to="26" fromLane="0" toLane="0"/>

    <connection from="-3" to="14" fromLane="0" toLane="0"/>
    <connection from="-3" to="-6" fromLane="0" toLane="0"/>
    <connection from="-3" to="-17" fromLane="0" toLane="0"/>
    <connection from="-3" to="3" fromLane="0" toLane="0"/>

    <connection from="-4" to="25" fromLane="0" toLane="0"/>
    <connection from="-4" to="9" fromLane="0" toLane="0"/>
    <connection from="-4" to="4" fromLane="0" toLane="0"/>

    <connection from="-5" to="13" fromLane="0" toLane="0"/>
    <connection from="-5" to="-4" fromLane="0" toLane="0"/>
    <connection from="-5" to="-16" fromLane="0" toLane="0"/>
    <connection from="-5" to="5" fromLane="0" toLane="0"/>

    <connection from="-6" to="-5" fromLane="0" toLane="0"/>
    <connection from="-6" to="21" fromLane="0" toLane="0"/>
    <connection from="-6" to="6" fromLane="0" toLane="0"/>

    <connection from="-7" to="7" fromLane="0" toLane="0"/>

    <connection from="-8" to="8" fromLane="0" toLane="0"/>

    <connection from="-9" to="4" fromLane="0" toLane="0"/>
    <connection from="-9" to="25" fromLane="0" toLane="0"/>
    <connection from="-9" to="9" fromLane="0" toLane="0"/>

    <connection from="0" to="-0" fromLane="0" toLane="0"/>

    <connection from="1" to="0" fromLane="0" toLane="0"/>
    <connection from="1" to="-1" fromLane="0" toLane="0"/>

    <connection from="10" to="2" fromLane="0" toLane="0"/>
    <connection from="10" to="26" fromLane="0" toLane="0"/>
    <connection from="10" to="-19" fromLane="0" toLane="0"/>
    <connection from="10" to="-10" fromLane="0" toLane="0"/>

    <connection from="11" to="10" fromLane="0" toLane="0"/>
    <connection from="11" to="-11" fromLane="0" toLane="0"/>

    <connection from="13" to="-13" fromLane="0" toLane="0"/>

    <connection from="14" to="-14" fromLane="0" toLane="1"/>

    <connection from="16" to="5" fromLane="0" toLane="0"/>
    <connection from="16" to="13" fromLane="0" toLane="0"/>
    <connection from="16" to="-4" fromLane="0" toLane="0"/>
    <connection from="16" to="-16" fromLane="0" toLane="0"/>

    <connection from="17" to="3" fromLane="0" toLane="0"/>
    <connection from="17" to="14" fromLane="0" toLane="0"/>
    <connection from="17" to="-6" fromLane="0" toLane="0"/>
    <connection from="17" to="-17" fromLane="0" toLane="0"/>

    <connection from="18" to="17" fromLane="0" toLane="0"/>
    <connection from="18" to="19" fromLane="0" toLane="0"/>
    <connection from="18" to="-18" fromLane="0" toLane="0"/>

    <connection from="19" to="-10" fromLane="0" toLane="0"/>
    <connection from="19" to="2" fromLane="0" toLane="0"/>
    <connection from="19" to="26" fromLane="0" toLane="0"/>
    <connection from="19" to="-19" fromLane="0" toLane="0"/>

    <connection from="2" to="1" fromLane="0" toLane="0"/>
    <connection from="2" to="-2" fromLane="0" toLane="0"/>

    <connection from="20" to="-25" fromLane="0" toLane="0"/>
    <connection from="20" to="-20" fromLane="0" toLane="0"/>

    <connection from="21" to="22" fromLane="0" toLane="0"/>
    <connection from="21" to="-21" fromLane="0" toLane="0"/>

    <connection from="22" to="24" fromLane="0" toLane="0"/>
    <connection from="22" to="-22" fromLane="0" toLane="0"/>

    <connection from="24" to="-24" fromLane="0" toLane="0"/>

    <connection from="25" to="-20" fromLane="0" toLane="0"/>
    <connection from="25" to="-25" fromLane="0" toLane="0"/>

    <connection from="26" to="gneE11" fromLane="0" toLane="0"/>

    <connection from="3" to="-3" fromLane="0" toLane="0"/>

    <connection from="4" to="-16" fromLane="0" toLane="0"/>
    <connection from="4" to="5" fromLane="0" toLane="0"/>
    <connection from="4" to="13" fromLane="0" toLane="0"/>
    <connection from="4" to="-4" fromLane="0" toLane="0"/>

    <connection from="5" to="21" fromLane="0" toLane="0"/>
    <connection from="5" to="6" fromLane="0" toLane="0"/>
    <connection from="5" to="-5" fromLane="0" toLane="0"/>

    <connection from="6" to="-17" fromLane="0" toLane="0"/>
    <connection from="6" to="3" fromLane="0" toLane="0"/>
    <connection from="6" to="14" fromLane="0" toLane="0"/>
    <connection from="6" to="-6" fromLane="0" toLane="0"/>

    <connection from="7" to="-7" fromLane="0" toLane="0"/>

    <connection from="8" to="-8" fromLane="0" toLane="0"/>

    <connection from="9" to="11" fromLane="0" toLane="0"/>
    <connection from="9" to="-9" fromLane="0" toLane="0"/>

    <connection from="gneE10" to="gneE11" fromLane="0" toLane="0"/>
    <connection from="gneE10" to="-26" fromLane="0" toLane="0"/>

    <connection from="gneE11" to="gneE12" fromLane="0" toLane="0"/>
    <connection from="gneE11" to="18" fromLane="0" toLane="0"/>

    <connection from="gneE12" to="gneE10" fromLane="0" toLane="0"/>
    <connection from="gneE12" to="20" fromLane="0" toLane="0"/>

</connections>
