<?xml version="1.0" encoding="UTF-8"?>

<!-- generated on 2025-10-19 12:09:18 by Eclipse SUMO netedit Version 1.24.0
<neteditConfiguration xmlns:xsi="http://www.w3.org/2001/XMLSchema-instance" xsi:noNamespaceSchemaLocation="http://sumo.dlr.de/xsd/neteditConfiguration.xsd">

    <input>
        <sumocfg-file value="C:\Users\ACER\Documents\CS\Multimodal Interaction\Webots\worlds\village_realistic_net\sumo.sumocfg"/>
        <sumo-net-file value="C:\Users\ACER\Documents\CS\Multimodal Interaction\Webots\worlds\village_realistic_net\sumo.net.xml"/>
    </input>

    <output>
        <output-file value="C:\Users\ACER\Documents\CS\Multimodal Interaction\Webots\worlds\village_realistic_net\sumo.net.xml"/>
    </output>

    <processing>
        <geometry.min-radius.fix.railways value="false"/>
        <geometry.avoid-overlap value="false"/>
        <geometry.max-grade.fix value="false"/>
        <offset.disable-normalization value="true"/>
        <lefthand value="0"/>
    </processing>

    <junctions>
        <no-turnarounds value="true"/>
        <junctions.corner-detail value="0"/>
        <junctions.limit-turn-speed value="-1.00"/>
        <rectangular-lane-cut value="0"/>
    </junctions>

    <pedestrian>
        <walkingareas value="0"/>
    </pedestrian>

    <netedit>
        <ignore.routeelements value="false"/>
    </netedit>

</neteditConfiguration>
-->

<net version="1.20" avoidOverlap="0" xmlns:xsi="http://www.w3.org/2001/XMLSchema-instance" xsi:noNamespaceSchemaLocation="http://sumo.dlr.de/xsd/net_file.xsd">

    <location netOffset="-45.13,679.11" convBoundary="0.00,0.00,369.24,371.11" origBoundary="45.13,-679.11,414.37,-308.00" projParameter="!"/>

    <edge id=":27_0" function="internal">
        <lane id=":27_0_0" index="0" speed="13.90" length="3.05" width="3.50" shape="128.43,175.90 127.67,175.68 127.05,175.81 126.55,176.30 126.18,177.14"/>
    </edge>
    <edge id=":27_1" function="internal">
        <lane id=":27_1_0" index="0" speed="13.90" length="7.00" width="3.50" shape="128.43,175.90 126.57,174.99 125.24,174.44 123.85,174.12 121.80,173.91"/>
    </edge>
    <edge id=":27_2" function="internal">
        <lane id=":27_2_0" index="0" speed="13.90" length="1.32" width="3.50" shape="128.43,175.90 127.37,175.11"/>
    </edge>
    <edge id=":27_3" function="internal">
        <lane id=":27_3_0" index="0" speed="13.90" length="1.83" width="3.50" shape="128.43,175.90 127.43,174.66 127.39,174.43"/>
    </edge>
    <edge id=":27_16" function="internal">
        <lane id=":27_16_0" index="0" speed="13.90" length="6.49" width="3.50" shape="127.37,175.11 126.86,174.72 125.61,173.03 124.89,171.15 124.93,169.41"/>
    </edge>
    <edge id=":27_17" function="internal">
        <lane id=":27_17_0" index="0" speed="13.90" length="3.34" width="3.50" shape="127.39,174.43 127.27,173.68 127.95,172.97 129.48,172.52"/>
    </edge>
    <edge id=":27_4" function="internal">
        <lane id=":27_4_0" index="0" speed="13.90" length="2.64" width="3.50" shape="128.27,170.45 128.20,171.06 128.38,171.61 128.80,172.10 129.48,172.52"/>
    </edge>
    <edge id=":27_5" function="internal">
        <lane id=":27_5_0" index="0" speed="13.90" length="7.00" width="3.50" shape="128.27,170.45 126.18,177.14"/>
    </edge>
    <edge id=":27_6" function="internal">
        <lane id=":27_6_0" index="0" speed="13.90" length="8.00" width="3.50" shape="128.27,170.45 127.42,172.12 126.05,173.25 124.18,173.85 121.80,173.91"/>
    </edge>
    <edge id=":27_7" function="internal">
        <lane id=":27_7_0" index="0" speed="13.90" length="5.11" width="3.50" shape="128.27,170.45 127.05,171.45 126.08,171.61 125.38,170.93 124.93,169.41"/>
    </edge>
    <edge id=":27_8" function="internal">
        <lane id=":27_8_0" index="0" speed="13.90" length="3.60" width="3.50" shape="122.33,166.93 124.93,169.41"/>
    </edge>
    <edge id=":27_9" function="internal">
        <lane id=":27_9_0" index="0" speed="13.90" length="9.38" width="3.50" shape="122.33,166.93 124.78,167.67 126.07,169.11 127.28,170.86 129.48,172.52"/>
    </edge>
    <edge id=":27_10" function="internal">
        <lane id=":27_10_0" index="0" speed="13.90" length="3.15" width="3.50" shape="122.79,170.48 124.47,171.26 125.22,172.33"/>
    </edge>
    <edge id=":27_11" function="internal">
        <lane id=":27_11_0" index="0" speed="13.90" length="1.61" width="3.50" shape="122.79,170.48 123.83,171.71"/>
    </edge>
    <edge id=":27_18" function="internal">
        <lane id=":27_18_0" index="0" speed="13.90" length="5.05" width="3.50" shape="125.22,172.33 125.68,172.98 126.30,175.12 126.18,177.14"/>
    </edge>
    <edge id=":27_19" function="internal">
        <lane id=":27_19_0" index="0" speed="13.90" length="3.61" width="3.50" shape="123.83,171.71 124.01,172.69 123.33,173.43 121.80,173.91"/>
    </edge>
    <edge id=":27_12" function="internal">
        <lane id=":27_12_0" index="0" speed="13.90" length="2.89" width="3.50" shape="122.84,176.09 123.00,175.19 122.88,174.52 122.48,174.10 121.80,173.91"/>
    </edge>
    <edge id=":27_13" function="internal">
        <lane id=":27_13_0" index="0" speed="13.90" length="7.00" width="3.50" shape="122.84,176.09 124.93,169.41"/>
    </edge>
    <edge id=":27_14" function="internal">
        <lane id=":27_14_0" index="0" speed="13.90" length="8.25" width="3.50" shape="122.84,176.09 123.86,174.36 125.58,172.99 127.59,172.27 129.48,172.52"/>
    </edge>
    <edge id=":27_15" function="internal">
        <lane id=":27_15_0" index="0" speed="13.90" length="5.11" width="3.50" shape="122.84,176.09 124.07,175.10 125.03,174.94 125.74,175.62 126.18,177.14"/>
    </edge>
    <edge id=":28_0" function="internal">
        <lane id=":28_0_0" index="0" speed="13.90" length="2.86" width="3.50" shape="155.77,99.60 155.00,99.48 154.38,99.65 153.92,100.10 153.62,100.83"/>
    </edge>
    <edge id=":28_1" function="internal">
        <lane id=":28_1_0" index="0" speed="13.90" length="7.04" width="3.50" shape="155.77,99.60 153.74,99.13 152.29,98.98 150.89,98.72 148.97,97.95"/>
    </edge>
    <edge id=":28_2" function="internal">
        <lane id=":28_2_0" index="0" speed="13.90" length="1.34" width="3.50" shape="155.77,99.60 154.60,98.95"/>
    </edge>
    <edge id=":28_3" function="internal">
        <lane id=":28_3_0" index="0" speed="13.90" length="1.58" width="3.50" shape="155.77,99.60 154.73,98.41"/>
    </edge>
    <edge id=":28_16" function="internal">
        <lane id=":28_16_0" index="0" speed="13.90" length="7.17" width="3.50" shape="154.60,98.95 153.89,98.56 152.25,96.83 151.36,94.86 151.71,93.08"/>
    </edge>
    <edge id=":28_17" function="internal">
        <lane id=":28_17_0" index="0" speed="13.90" length="3.54" width="3.50" shape="154.73,98.41 154.54,97.45 155.18,96.72 156.68,96.21"/>
    </edge>
    <edge id=":28_4" function="internal">
        <lane id=":28_4_0" index="0" speed="13.90" length="3.13" width="3.50" shape="155.32,94.08 155.01,94.74 155.14,95.32 155.69,95.81 156.68,96.21"/>
    </edge>
    <edge id=":28_5" function="internal">
        <lane id=":28_5_0" index="0" speed="13.90" length="7.09" width="3.50" shape="155.32,94.08 154.30,95.84 154.01,97.24 153.96,98.75 153.62,100.83"/>
    </edge>
    <edge id=":28_6" function="internal">
        <lane id=":28_6_0" index="0" speed="13.90" length="7.70" width="3.50" shape="155.32,94.08 153.89,95.61 152.07,97.00 150.30,97.89 148.97,97.95"/>
    </edge>
    <edge id=":28_7" function="internal">
        <lane id=":28_7_0" index="0" speed="13.90" length="5.47" width="3.50" shape="155.32,94.08 154.04,95.18 153.01,95.38 152.24,94.68 151.71,93.08"/>
    </edge>
    <edge id=":28_8" function="internal">
        <lane id=":28_8_0" index="0" speed="13.90" length="2.55" width="3.50" shape="149.89,94.50 150.47,94.58 150.91,94.26 151.30,93.70 151.71,93.08"/>
    </edge>
    <edge id=":28_9" function="internal">
        <lane id=":28_9_0" index="0" speed="13.90" length="7.03" width="3.50" shape="149.89,94.50 151.81,95.28 153.21,95.56 154.65,95.74 156.68,96.21"/>
    </edge>
    <edge id=":28_10" function="internal">
        <lane id=":28_10_0" index="0" speed="13.90" length="0.45" width="3.50" shape="149.89,94.50 150.25,94.77"/>
    </edge>
    <edge id=":28_11" function="internal">
        <lane id=":28_11_0" index="0" speed="13.90" length="1.80" width="3.50" shape="149.89,94.50 150.96,95.71 150.99,95.90"/>
    </edge>
    <edge id=":28_18" function="internal">
        <lane id=":28_18_0" index="0" speed="13.90" length="7.29" width="3.50" shape="150.25,94.77 151.47,95.67 152.77,97.33 153.56,99.16 153.62,100.83"/>
    </edge>
    <edge id=":28_19" function="internal">
        <lane id=":28_19_0" index="0" speed="13.90" length="3.41" width="3.50" shape="150.99,95.90 151.16,96.68 150.49,97.43 148.97,97.95"/>
    </edge>
    <edge id=":28_12" function="internal">
        <lane id=":28_12_0" index="0" speed="13.90" length="2.56" width="3.50" shape="150.24,99.93 150.27,99.35 150.07,98.83 149.64,98.36 148.97,97.95"/>
    </edge>
    <edge id=":28_13" function="internal">
        <lane id=":28_13_0" index="0" speed="13.90" length="7.14" width="3.50" shape="150.24,99.93 150.54,97.82 150.52,96.29 150.72,94.86 151.71,93.08"/>
    </edge>
    <edge id=":28_14" function="internal">
        <lane id=":28_14_0" index="0" speed="13.90" length="8.06" width="3.50" shape="150.24,99.93 151.17,98.24 152.80,96.90 154.76,96.16 156.68,96.21"/>
    </edge>
    <edge id=":28_15" function="internal">
        <lane id=":28_15_0" index="0" speed="13.90" length="5.11" width="3.50" shape="150.24,99.93 151.42,98.89 152.38,98.69 153.11,99.34 153.62,100.83"/>
    </edge>
    <edge id=":29_0" function="internal">
        <lane id=":29_0_0" index="0" speed="13.90" length="3.03" width="3.50" shape="192.56,37.75 192.04,37.98 191.83,38.68 191.71,39.57 191.48,40.37"/>
    </edge>
    <edge id=":29_1" function="internal">
        <lane id=":29_1_0" index="0" speed="13.90" length="6.01" width="3.50" shape="192.56,37.75 190.78,37.55 189.53,37.33 188.44,36.79 187.14,35.64"/>
    </edge>
    <edge id=":29_2" function="internal">
        <lane id=":29_2_0" index="0" speed="13.90" length="0.98" width="3.50" shape="192.56,37.75 191.92,37.02"/>
    </edge>
    <edge id=":29_9" function="internal">
        <lane id=":29_9_0" index="0" speed="13.90" length="4.18" width="3.50" shape="191.92,37.02 191.51,36.56 191.31,35.59 191.97,34.85 193.47,34.34"/>
    </edge>
    <edge id=":29_3" function="internal">
        <lane id=":29_3_0" index="0" speed="13.90" length="2.64" width="3.50" shape="191.02,34.60 191.59,34.91 192.11,34.74 192.70,34.44 193.47,34.34"/>
    </edge>
    <edge id=":29_4" function="internal">
        <lane id=":29_4_0" index="0" speed="13.90" length="0.79" width="3.50" shape="191.02,34.60 191.48,35.24"/>
    </edge>
    <edge id=":29_5" function="internal">
        <lane id=":29_5_0" index="0" speed="13.90" length="1.04" width="3.50" shape="191.02,34.60 190.69,35.59"/>
    </edge>
    <edge id=":29_10" function="internal">
        <lane id=":29_10_0" index="0" speed="13.90" length="5.46" width="3.50" shape="191.48,35.24 191.93,35.86 192.31,37.24 192.16,38.75 191.48,40.37"/>
    </edge>
    <edge id=":29_11" function="internal">
        <lane id=":29_11_0" index="0" speed="13.90" length="4.82" width="3.50" shape="190.69,35.59 190.44,36.31 189.60,37.06 188.50,36.83 187.14,35.64"/>
    </edge>
    <edge id=":29_6" function="internal">
        <lane id=":29_6_0" index="0" speed="13.90" length="2.99" width="3.50" shape="188.91,37.80 188.94,37.19 188.47,36.66 187.78,36.15 187.14,35.64"/>
    </edge>
    <edge id=":29_7" function="internal">
        <lane id=":29_7_0" index="0" speed="13.90" length="6.06" width="3.50" shape="188.91,37.80 189.99,36.16 191.11,35.04 192.27,34.43 193.47,34.34"/>
    </edge>
    <edge id=":29_8" function="internal">
        <lane id=":29_8_0" index="0" speed="13.90" length="5.31" width="3.50" shape="188.91,37.80 190.51,37.48 191.48,37.80 191.80,38.76 191.48,40.37"/>
    </edge>
    <edge id=":30_0" function="internal">
        <lane id=":30_0_0" index="0" speed="13.90" length="2.34" width="3.50" shape="263.89,190.71 263.74,190.13 263.37,189.81 262.84,189.61 262.19,189.40"/>
    </edge>
    <edge id=":30_1" function="internal">
        <lane id=":30_1_0" index="0" speed="13.90" length="7.07" width="3.50" shape="263.89,190.71 263.65,188.62 263.37,187.17 263.30,185.74 263.65,183.71"/>
    </edge>
    <edge id=":30_2" function="internal">
        <lane id=":30_2_0" index="0" speed="13.90" length="0.64" width="3.50" shape="263.89,190.71 264.03,190.08"/>
    </edge>
    <edge id=":30_3" function="internal">
        <lane id=":30_3_0" index="0" speed="13.90" length="1.58" width="3.50" shape="263.89,190.71 264.77,189.40"/>
    </edge>
    <edge id=":30_16" function="internal">
        <lane id=":30_16_0" index="0" speed="13.90" length="7.44" width="3.50" shape="264.03,190.08 264.31,188.84 265.56,187.15 267.29,185.93 269.19,185.46"/>
    </edge>
    <edge id=":30_17" function="internal">
        <lane id=":30_17_0" index="0" speed="13.90" length="3.54" width="3.50" shape="264.77,189.40 265.65,188.96 266.52,189.40 267.40,190.71"/>
    </edge>
    <edge id=":30_4" function="internal">
        <lane id=":30_4_0" index="0" speed="13.90" length="2.89" width="3.50" shape="269.19,188.96 268.37,189.07 267.80,189.40 267.47,189.94 267.40,190.71"/>
    </edge>
    <edge id=":30_5" function="internal">
        <lane id=":30_5_0" index="0" speed="13.90" length="7.15" width="3.50" shape="269.19,188.96 267.08,189.20 265.60,189.65 264.17,189.86 262.19,189.40"/>
    </edge>
    <edge id=":30_6" function="internal">
        <lane id=":30_6_0" index="0" speed="13.90" length="8.40" width="3.50" shape="269.19,188.96 267.16,188.49 265.23,187.26 263.89,185.57 263.65,183.71"/>
    </edge>
    <edge id=":30_7" function="internal">
        <lane id=":30_7_0" index="0" speed="13.90" length="5.11" width="3.50" shape="269.19,188.96 267.88,188.09 267.44,187.21 267.88,186.33 269.19,185.46"/>
    </edge>
    <edge id=":30_8" function="internal">
        <lane id=":30_8_0" index="0" speed="13.90" length="3.14" width="3.50" shape="267.26,183.71 267.22,184.48 267.52,185.02 268.18,185.35 269.19,185.46"/>
    </edge>
    <edge id=":30_9" function="internal">
        <lane id=":30_9_0" index="0" speed="13.90" length="7.07" width="3.50" shape="267.26,183.71 266.89,185.74 266.93,187.17 267.17,188.62 267.40,190.71"/>
    </edge>
    <edge id=":30_10" function="internal">
        <lane id=":30_10_0" index="0" speed="13.90" length="1.57" width="3.50" shape="267.26,183.71 266.67,185.16"/>
    </edge>
    <edge id=":30_11" function="internal">
        <lane id=":30_11_0" index="0" speed="13.90" length="1.88" width="3.50" shape="267.26,183.71 266.36,185.06 266.13,185.18"/>
    </edge>
    <edge id=":30_18" function="internal">
        <lane id=":30_18_0" index="0" speed="13.90" length="6.50" width="3.50" shape="266.67,185.16 266.44,185.73 265.11,187.71 263.59,189.12 262.19,189.40"/>
    </edge>
    <edge id=":30_19" function="internal">
        <lane id=":30_19_0" index="0" speed="13.90" length="3.39" width="3.50" shape="266.13,185.18 265.46,185.52 264.55,185.06 263.65,183.71"/>
    </edge>
    <edge id=":30_12" function="internal">
        <lane id=":30_12_0" index="0" speed="13.90" length="2.74" width="3.50" shape="262.19,185.65 262.78,185.63 263.18,185.18 263.45,184.47 263.65,183.71"/>
    </edge>
    <edge id=":30_13" function="internal">
        <lane id=":30_13_0" index="0" speed="13.90" length="7.12" width="3.50" shape="262.19,185.65 264.17,186.15 265.60,186.02 267.08,185.67 269.19,185.46"/>
    </edge>
    <edge id=":30_14" function="internal">
        <lane id=":30_14_0" index="0" speed="13.90" length="7.48" width="3.50" shape="262.19,185.65 263.95,186.58 265.61,187.92 266.87,189.38 267.40,190.71"/>
    </edge>
    <edge id=":30_15" function="internal">
        <lane id=":30_15_0" index="0" speed="13.90" length="5.48" width="3.50" shape="262.19,185.65 263.60,186.58 264.06,187.52 263.60,188.46 262.19,189.40"/>
    </edge>
    <edge id=":32_0" function="internal">
        <lane id=":32_0_0" index="0" speed="13.90" length="2.13" width="3.50" shape="315.27,109.66 315.39,110.28 315.42,110.71 315.38,111.14 315.26,111.76"/>
    </edge>
    <edge id=":32_1" function="internal">
        <lane id=":32_1_0" index="0" speed="13.90" length="1.69" width="3.50" shape="315.27,109.66 314.67,111.12 314.58,111.19"/>
    </edge>
    <edge id=":32_4" function="internal">
        <lane id=":32_4_0" index="0" speed="13.90" length="3.42" width="3.50" shape="314.58,111.19 313.90,111.72 312.96,111.46 311.84,110.35"/>
    </edge>
    <edge id=":32_2" function="internal">
        <lane id=":32_2_0" index="0" speed="13.90" length="0.71" width="3.50" shape="311.84,111.05 311.88,110.85 311.89,110.70 311.88,110.56 311.84,110.35"/>
    </edge>
    <edge id=":32_3" function="internal">
        <lane id=":32_3_0" index="0" speed="13.90" length="1.58" width="3.50" shape="311.84,111.05 312.96,109.94"/>
    </edge>
    <edge id=":32_5" function="internal">
        <lane id=":32_5_0" index="0" speed="13.90" length="3.53" width="3.50" shape="312.96,109.94 313.90,109.69 314.67,110.30 315.26,111.76"/>
    </edge>
    <edge id=":33_0" function="internal">
        <lane id=":33_0_0" index="0" speed="13.90" length="0.22" width="3.50" shape="302.26,63.02 302.24,62.96 302.23,62.91 302.22,62.87 302.20,62.81"/>
    </edge>
    <edge id=":33_1" function="internal">
        <lane id=":33_1_0" index="0" speed="13.90" length="2.56" width="3.50" shape="302.26,63.02 302.86,61.56 303.63,60.96"/>
    </edge>
    <edge id=":33_4" function="internal">
        <lane id=":33_4_0" index="0" speed="13.90" length="2.56" width="3.50" shape="303.63,60.96 304.57,61.21 305.69,62.33"/>
    </edge>
    <edge id=":33_2" function="internal">
        <lane id=":33_2_0" index="0" speed="13.90" length="0.65" width="3.50" shape="305.52,61.70 305.58,61.88 305.62,62.01 305.65,62.14 305.69,62.33"/>
    </edge>
    <edge id=":33_3" function="internal">
        <lane id=":33_3_0" index="0" speed="13.90" length="2.56" width="3.50" shape="305.52,61.70 305.11,63.22 304.42,63.91"/>
    </edge>
    <edge id=":33_5" function="internal">
        <lane id=":33_5_0" index="0" speed="13.90" length="2.56" width="3.50" shape="304.42,63.91 303.45,63.78 302.20,62.81"/>
    </edge>
    <edge id=":34_0" function="internal">
        <lane id=":34_0_0" index="0" speed="13.90" length="0.10" width="3.50" shape="238.41,113.84 238.41,113.84"/>
    </edge>
    <edge id=":34_1" function="internal">
        <lane id=":34_1_0" index="0" speed="13.90" length="2.56" width="3.50" shape="238.41,113.84 236.84,113.71 236.03,113.16"/>
    </edge>
    <edge id=":34_4" function="internal">
        <lane id=":34_4_0" index="0" speed="13.90" length="2.56" width="3.50" shape="236.03,113.16 235.99,112.19 236.71,110.78"/>
    </edge>
    <edge id=":34_2" function="internal">
        <lane id=":34_2_0" index="0" speed="13.90" length="0.10" width="3.50" shape="236.71,110.78 236.71,110.78"/>
    </edge>
    <edge id=":34_3" function="internal">
        <lane id=":34_3_0" index="0" speed="13.90" length="2.56" width="3.50" shape="236.71,110.78 238.28,110.91 239.09,111.46"/>
    </edge>
    <edge id=":34_5" function="internal">
        <lane id=":34_5_0" index="0" speed="13.90" length="2.56" width="3.50" shape="239.09,111.46 239.13,112.44 238.41,113.84"/>
    </edge>
    <edge id=":35_0" function="internal">
        <lane id=":35_0_0" index="0" speed="13.90" length="0.59" width="3.50" shape="203.66,133.21 203.50,133.30 203.39,133.35 203.28,133.40 203.12,133.47"/>
    </edge>
    <edge id=":35_1" function="internal">
        <lane id=":35_1_0" index="0" speed="13.90" length="2.56" width="3.50" shape="203.66,133.21 202.08,133.09 201.27,132.54"/>
    </edge>
    <edge id=":35_4" function="internal">
        <lane id=":35_4_0" index="0" speed="13.90" length="2.56" width="3.50" shape="201.27,132.54 201.23,131.56 201.95,130.15"/>
    </edge>
    <edge id=":35_2" function="internal">
        <lane id=":35_2_0" index="0" speed="13.90" length="0.20" width="3.50" shape="201.77,130.24 201.83,130.22 201.86,130.20 201.90,130.18 201.95,130.15"/>
    </edge>
    <edge id=":35_3" function="internal">
        <lane id=":35_3_0" index="0" speed="13.90" length="2.56" width="3.50" shape="201.77,130.24 203.32,130.54 204.06,131.18"/>
    </edge>
    <edge id=":35_5" function="internal">
        <lane id=":35_5_0" index="0" speed="13.90" length="2.56" width="3.50" shape="204.06,131.18 204.00,132.16 203.12,133.47"/>
    </edge>
    <edge id=":36_0" function="internal">
        <lane id=":36_0_0" index="0" speed="13.90" length="9.20" width="3.50" shape="148.47,138.47 146.03,137.91 143.96,138.24 142.25,139.47 140.91,141.58"/>
    </edge>
    <edge id=":36_1" function="internal">
        <lane id=":36_1_0" index="0" speed="13.90" length="14.82" width="3.50" shape="148.47,138.47 145.08,136.55 143.05,133.91 142.38,130.53 143.06,126.43"/>
    </edge>
    <edge id=":36_2" function="internal">
        <lane id=":36_2_0" index="0" speed="13.90" length="5.11" width="3.50" shape="148.47,138.47 147.57,137.17 147.49,136.19 148.22,135.54 149.77,135.21"/>
    </edge>
    <edge id=":36_3" function="internal">
        <lane id=":36_3_0" index="0" speed="13.90" length="9.28" width="3.50" shape="146.33,127.71 145.90,130.26 146.32,132.35 147.61,134.01 149.77,135.21"/>
    </edge>
    <edge id=":36_4" function="internal">
        <lane id=":36_4_0" index="0" speed="13.90" length="14.90" width="3.50" shape="146.33,127.71 145.14,131.25 143.83,134.73 142.42,138.16 140.91,141.58"/>
    </edge>
    <edge id=":36_5" function="internal">
        <lane id=":36_5_0" index="0" speed="13.90" length="1.58" width="3.50" shape="146.33,127.71 145.03,128.62"/>
    </edge>
    <edge id=":36_9" function="internal">
        <lane id=":36_9_0" index="0" speed="13.90" length="3.54" width="3.50" shape="145.03,128.62 144.06,128.71 143.40,127.98 143.06,126.43"/>
    </edge>
    <edge id=":36_6" function="internal">
        <lane id=":36_6_0" index="0" speed="13.90" length="14.79" width="3.50" shape="137.69,140.20 139.19,136.80 140.60,133.40 141.90,129.96 143.06,126.43"/>
    </edge>
    <edge id=":36_7" function="internal">
        <lane id=":36_7_0" index="0" speed="13.90" length="4.38" width="3.50" shape="137.69,140.20 139.84,136.82 140.14,136.60"/>
    </edge>
    <edge id=":36_8" function="internal">
        <lane id=":36_8_0" index="0" speed="13.90" length="1.58" width="3.50" shape="137.69,140.20 139.01,139.34"/>
    </edge>
    <edge id=":36_10" function="internal">
        <lane id=":36_10_0" index="0" speed="13.90" length="10.33" width="3.50" shape="140.14,136.60 142.56,134.87 145.87,134.33 149.77,135.21"/>
    </edge>
    <edge id=":36_11" function="internal">
        <lane id=":36_11_0" index="0" speed="13.90" length="3.53" width="3.50" shape="139.01,139.34 139.99,139.28 140.62,140.03 140.91,141.58"/>
    </edge>
    <edge id=":37_0" function="internal">
        <lane id=":37_0_0" index="0" speed="13.90" length="15.42" width="3.50" shape="224.25,184.59 221.02,186.62 218.02,189.09 215.30,191.88 212.92,194.88"/>
    </edge>
    <edge id=":37_1" function="internal">
        <lane id=":37_1_0" index="0" speed="13.90" length="4.03" width="3.50" shape="224.25,184.59 220.60,185.98 220.48,185.99"/>
    </edge>
    <edge id=":37_2" function="internal">
        <lane id=":37_2_0" index="0" speed="13.90" length="1.76" width="3.50" shape="224.25,184.59 222.66,184.74 222.50,184.67"/>
    </edge>
    <edge id=":37_9" function="internal">
        <lane id=":37_9_0" index="0" speed="13.90" length="11.00" width="3.50" shape="220.48,185.99 217.04,186.26 213.54,185.41 210.12,183.44"/>
    </edge>
    <edge id=":37_10" function="internal">
        <lane id=":37_10_0" index="0" speed="13.90" length="3.41" width="3.50" shape="222.50,184.67 221.75,184.33 221.54,183.36 222.01,181.84"/>
    </edge>
    <edge id=":37_3" function="internal">
        <lane id=":37_3_0" index="0" speed="13.90" length="10.40" width="3.50" shape="212.33,180.73 214.77,182.24 217.20,182.93 219.62,182.79 222.01,181.84"/>
    </edge>
    <edge id=":37_4" function="internal">
        <lane id=":37_4_0" index="0" speed="13.90" length="15.95" width="3.50" shape="212.33,180.73 214.94,183.63 215.91,186.95 215.23,190.70 212.92,194.88"/>
    </edge>
    <edge id=":37_5" function="internal">
        <lane id=":37_5_0" index="0" speed="13.90" length="5.11" width="3.50" shape="212.33,180.73 212.79,182.23 212.58,183.19 211.69,183.59 210.12,183.44"/>
    </edge>
    <edge id=":37_6" function="internal">
        <lane id=":37_6_0" index="0" speed="13.90" length="9.61" width="3.50" shape="210.75,191.90 212.10,189.42 212.45,187.18 211.79,185.19 210.12,183.44"/>
    </edge>
    <edge id=":37_7" function="internal">
        <lane id=":37_7_0" index="0" speed="13.90" length="15.22" width="3.50" shape="210.75,191.90 213.12,188.96 215.84,186.27 218.83,183.88 222.01,181.84"/>
    </edge>
    <edge id=":37_8" function="internal">
        <lane id=":37_8_0" index="0" speed="13.90" length="1.66" width="3.50" shape="210.75,191.90 212.41,191.83"/>
    </edge>
    <edge id=":37_11" function="internal">
        <lane id=":37_11_0" index="0" speed="13.90" length="3.72" width="3.50" shape="212.41,191.83 213.32,192.30 213.49,193.32 212.92,194.88"/>
    </edge>
    <edge id=":38_0" function="internal">
        <lane id=":38_0_0" index="0" speed="13.90" length="0.31" width="3.50" shape="45.82,172.24 45.74,172.54"/>
    </edge>
    <edge id=":38_1" function="internal">
        <lane id=":38_1_0" index="0" speed="13.90" length="2.56" width="3.50" shape="45.82,172.24 44.69,173.35 43.75,173.60"/>
    </edge>
    <edge id=":38_4" function="internal">
        <lane id=":38_4_0" index="0" speed="13.90" length="2.56" width="3.50" shape="43.75,173.60 42.98,173.00 42.39,171.54"/>
    </edge>
    <edge id=":38_2" function="internal">
        <lane id=":38_2_0" index="0" speed="13.90" length="0.30" width="3.50" shape="42.32,171.82 42.39,171.54"/>
    </edge>
    <edge id=":38_3" function="internal">
        <lane id=":38_3_0" index="0" speed="13.90" length="2.56" width="3.50" shape="42.32,171.82 43.44,170.72 44.39,170.47"/>
    </edge>
    <edge id=":38_5" function="internal">
        <lane id=":38_5_0" index="0" speed="13.90" length="2.56" width="3.50" shape="44.39,170.47 45.15,171.07 45.74,172.54"/>
    </edge>
    <edge id=":39_0" function="internal">
        <lane id=":39_0_0" index="0" speed="13.90" length="0.21" width="3.50" shape="318.70,227.29 318.62,227.10"/>
    </edge>
    <edge id=":39_1" function="internal">
        <lane id=":39_1_0" index="0" speed="13.90" length="2.56" width="3.50" shape="318.70,227.29 318.95,225.73 319.57,224.97"/>
    </edge>
    <edge id=":39_4" function="internal">
        <lane id=":39_4_0" index="0" speed="13.90" length="2.56" width="3.50" shape="319.57,224.97 320.54,225.00 321.89,225.83"/>
    </edge>
    <edge id=":39_2" function="internal">
        <lane id=":39_2_0" index="0" speed="13.90" length="0.31" width="3.50" shape="321.76,225.55 321.89,225.83"/>
    </edge>
    <edge id=":39_3" function="internal">
        <lane id=":39_3_0" index="0" speed="13.90" length="2.56" width="3.50" shape="321.76,225.55 321.56,227.11 320.97,227.89"/>
    </edge>
    <edge id=":39_5" function="internal">
        <lane id=":39_5_0" index="0" speed="13.90" length="2.56" width="3.50" shape="320.97,227.89 319.99,227.89 318.62,227.10"/>
    </edge>
    <edge id=":40_0" function="internal">
        <lane id=":40_0_0" index="0" speed="13.90" length="0.16" width="3.50" shape="312.28,215.00 312.25,214.96 312.24,214.93 312.22,214.91 312.19,214.87"/>
    </edge>
    <edge id=":40_1" function="internal">
        <lane id=":40_1_0" index="0" speed="13.90" length="2.56" width="3.50" shape="312.28,215.00 312.39,213.43 312.93,212.62"/>
    </edge>
    <edge id=":40_4" function="internal">
        <lane id=":40_4_0" index="0" speed="13.90" length="2.56" width="3.50" shape="312.93,212.62 313.91,212.56 315.32,213.27"/>
    </edge>
    <edge id=":40_2" function="internal">
        <lane id=":40_2_0" index="0" speed="13.90" length="0.47" width="3.50" shape="315.07,212.87 315.15,212.99 315.20,213.07 315.25,213.15 315.32,213.27"/>
    </edge>
    <edge id=":40_3" function="internal">
        <lane id=":40_3_0" index="0" speed="13.90" length="2.56" width="3.50" shape="315.07,212.87 315.10,214.45 314.63,215.31"/>
    </edge>
    <edge id=":40_5" function="internal">
        <lane id=":40_5_0" index="0" speed="13.90" length="2.56" width="3.50" shape="314.63,215.31 313.66,215.45 312.19,214.87"/>
    </edge>
    <edge id=":Custom13_0" function="internal">
        <lane id=":Custom13_0_0" index="0" speed="13.90" length="5.11" width="3.50" shape="368.41,248.90 369.98,249.05 370.78,249.61 370.81,250.59 370.07,251.98"/>
    </edge>
    <edge id=":Custom14_0" function="internal">
        <lane id=":Custom14_0_0" index="0" speed="13.90" length="5.11" width="3.50" shape="123.43,210.62 122.63,211.98 121.78,212.47 120.88,212.08 119.93,210.82"/>
    </edge>
    <edge id=":Custom15_0" function="internal">
        <lane id=":Custom15_0_0" index="0" speed="13.90" length="5.11" width="3.50" shape="59.81,58.67 60.37,60.15 60.21,61.11 59.34,61.57 57.77,61.51"/>
    </edge>
    <edge id=":Custom16_0" function="internal">
        <lane id=":Custom16_0_0" index="0" speed="13.90" length="5.11" width="3.50" shape="1.08,88.30 -0.50,88.42 -1.38,88.00 -1.57,87.04 -1.08,85.54"/>
    </edge>
    <edge id=":Custom17_0" function="internal">
        <lane id=":Custom17_0_0" index="0" speed="13.90" length="5.11" width="3.50" shape="74.94,66.06 75.73,67.42 75.74,68.40 74.96,68.99 73.40,69.20"/>
    </edge>
    <edge id=":Custom18_0" function="internal">